Version 4
SHEET 1 1844 680
WIRE 80 80 16 80
WIRE 352 80 352 16
WIRE 352 80 304 80
WIRE 784 80 720 80
WIRE 1056 80 1056 16
WIRE 1056 80 1008 80
WIRE 16 112 16 80
WIRE 720 112 720 80
WIRE 80 144 -256 144
WIRE 480 144 480 96
WIRE 480 144 304 144
WIRE 784 144 560 144
WIRE 1296 144 1296 96
WIRE 1296 144 1008 144
WIRE 1296 176 1296 144
WIRE 480 192 480 144
WIRE -64 208 -112 208
WIRE 80 208 16 208
WIRE 416 208 304 208
WIRE 784 208 736 208
WIRE 1232 208 1008 208
WIRE -384 256 -384 224
WIRE 80 272 32 272
WIRE 352 272 304 272
WIRE 784 272 736 272
WIRE 1072 272 1008 272
WIRE 352 352 352 336
WIRE -384 368 -384 336
WIRE -256 464 -256 144
WIRE 192 464 -256 464
WIRE 416 464 416 208
WIRE 416 464 192 464
WIRE 480 464 480 272
WIRE 480 464 416 464
WIRE 560 464 560 144
WIRE 1232 464 1232 208
WIRE 1232 464 560 464
WIRE 1296 464 1296 256
WIRE 1296 464 1232 464
WIRE -256 480 -256 464
WIRE 560 480 560 464
WIRE -256 560 -256 544
WIRE 560 560 560 544
FLAG -384 368 0
FLAG 352 352 0
FLAG -384 224 Vcc
FLAG 352 16 Vcc
FLAG 32 272 Vcc
FLAG 16 112 0
FLAG 480 16 Vcc
FLAG 192 464 TRIG/THRS
FLAG -256 560 0
FLAG 1072 272 Control_CV
FLAG -112 208 Control_CV
FLAG 1056 16 Vcc
FLAG 736 272 Vcc
FLAG 1296 16 Vcc
FLAG 560 560 0
FLAG 720 112 0
FLAG 672 208 Altavoz
IOPIN 672 208 Out
SYMBOL Misc\\NE555 192 176 R0
SYMATTR InstName U1
SYMBOL voltage -384 240 R0
WINDOW 123 0 0 Left 0
WINDOW 39 0 0 Left 0
SYMATTR InstName V1
SYMATTR Value 5
SYMBOL res 464 0 R0
SYMATTR InstName R1
SYMATTR Value 1K
SYMBOL cap 336 272 R0
SYMATTR InstName C3
SYMATTR Value 10n
SYMBOL cap -272 480 R0
SYMATTR InstName C1
SYMATTR Value 100µ
SYMBOL res 464 176 R0
SYMATTR InstName R2
SYMATTR Value 10K
SYMBOL res 32 192 R90
WINDOW 0 0 56 VBottom 2
WINDOW 3 32 56 VTop 2
SYMATTR InstName R5
SYMATTR Value 10K
SYMBOL Misc\\NE555 896 176 R0
SYMATTR InstName U2
SYMBOL res 1280 0 R0
SYMATTR InstName R3
SYMATTR Value 1K
SYMBOL res 1280 160 R0
SYMATTR InstName R4
SYMATTR Value 10K
SYMBOL cap 544 480 R0
SYMATTR InstName C2
SYMATTR Value 100n
SYMBOL cap 736 192 R90
WINDOW 0 0 32 VBottom 2
WINDOW 3 32 32 VTop 2
SYMATTR InstName C4
SYMATTR Value 10µ
TEXT 416 568 Left 2 !.tran 5 uic
