Version 4
SHEET 1 1804 680
WIRE 208 -16 -272 -16
WIRE 208 16 208 -16
WIRE 208 16 128 16
WIRE 304 16 208 16
WIRE -272 80 -272 -16
WIRE 128 112 128 80
WIRE 208 112 128 112
WIRE 304 112 304 80
WIRE 528 112 304 112
WIRE 592 112 528 112
WIRE 672 112 592 112
WIRE 832 112 752 112
WIRE 944 112 832 112
WIRE 128 144 128 112
WIRE 304 144 304 112
WIRE 208 160 208 112
WIRE 944 160 944 112
WIRE 592 176 592 112
WIRE 832 176 832 112
WIRE 128 224 128 208
WIRE 208 224 128 224
WIRE 304 224 304 208
WIRE 304 224 208 224
WIRE -272 256 -272 160
WIRE 208 256 208 224
WIRE 208 256 -272 256
WIRE 592 304 592 240
WIRE 832 304 832 240
WIRE 944 304 944 240
FLAG 944 304 0
FLAG 944 112 SALIDA
FLAG 208 160 0
FLAG 592 304 0
FLAG 832 304 0
FLAG 528 112 FILTRADA
SYMBOL diode 112 144 R0
WINDOW 0 -36 3 Left 2
WINDOW 3 206 64 Left 2
SYMATTR InstName D1
SYMATTR Value 1SR156-400
SYMBOL voltage -272 64 R0
WINDOW 123 0 0 Left 0
WINDOW 39 0 0 Left 0
SYMATTR InstName V1
SYMATTR Value SINE(0 12 50)
SYMBOL res 928 144 R0
SYMATTR InstName R1
SYMATTR Value 1K
SYMBOL diode 144 80 R180
WINDOW 0 40 27 Left 2
WINDOW 3 35 -5 Left 2
SYMATTR InstName D2
SYMATTR Value 1SR154-400
SYMBOL diode 288 16 R0
WINDOW 3 26 66 Left 2
SYMATTR Value 1SR156-400
SYMATTR InstName D3
SYMBOL diode 320 208 R180
WINDOW 0 -28 67 Left 2
WINDOW 3 215 -3 Left 2
SYMATTR InstName D4
SYMATTR Value 1SR156-400
SYMBOL cap 576 176 R0
WINDOW 0 -27 8 Left 2
WINDOW 3 -43 65 Left 2
SYMATTR InstName C1
SYMATTR Value 100µ
SYMBOL res 768 96 R90
WINDOW 0 0 56 VBottom 2
WINDOW 3 32 56 VTop 2
SYMATTR InstName R2
SYMATTR Value 220
SYMBOL zener 848 240 R180
WINDOW 0 24 64 Left 2
WINDOW 3 24 0 Left 2
SYMATTR InstName D5
SYMATTR Value 1N750
SYMATTR Description Diode
SYMATTR Type diode
TEXT 384 360 Left 2 !.tran 40m
